AMOSTRA/CSO/Cargas.dss
! ==========================================================
! CARGAS — mes 01
! BT: UCBT_tab agregada por transformador (kW = ENE/730 h)
! MT: UCMT_tab individual no PAC do consumidor
! fator de escala aplicado: 1
! 0 cargas de MT descartadas por PAC ausente da rede.
! ==========================================================
New Load.BT_2783155_1 Bus1=2783155-10867092.1.4 Phases=1 Model=8 zipv=(0.5,0,0.5,1,0,0,0) kv=0.1270 pf=0.92 kW=8.175470 Daily=RES-Tipo1
New Load.BT_2783155_2 Bus1=2783155-10867092.2.4 Phases=1 Model=8 zipv=(0.5,0,0.5,1,0,0,0) kv=0.1270 pf=0.92 kW=8.175470 Daily=RES-Tipo1
New Load.BT_2783155_3 Bus1=2783155-10867092.3.4 Phases=1 Model=8 zipv=(0.5,0,0.5,1,0,0,0) kv=0.1270 pf=0.92 kW=8.175470 Daily=RES-Tipo1
New Load.BT_2783147_1 Bus1=2783147-10868275.1.4 Phases=1 Model=8 zipv=(0.5,0,0.5,1,0,0,0) kv=0.1270 pf=0.92 kW=6.054443 Daily=RES-Tipo8
New Load.BT_2783147_2 Bus1=2783147-10868275.2.4 Phases=1 Model=8 zipv=(0.5,0,0.5,1,0,0,0) kv=0.1270 pf=0.92 kW=6.054443 Daily=RES-Tipo8
New Load.BT_2783147_3 Bus1=2783147-10868275.3.4 Phases=1 Model=8 zipv=(0.5,0,0.5,1,0,0,0) kv=0.1270 pf=0.92 kW=6.054443 Daily=RES-Tipo8
New Load.BT_2782833_1 Bus1=2782833-10865067.1.4 Phases=1 Model=8 zipv=(0.5,0,0.5,1,0,0,0) kv=0.1100 pf=0.92 kW=0.495890 Daily=RUR-Tipo8
New Load.BT_2782833_2 Bus1=2782833-10865067.2.4 Phases=1 Model=8 zipv=(0.5,0,0.5,1,0,0,0) kv=0.1100 pf=0.92 kW=0.495890 Daily=RUR-Tipo8
New Load.BT_2782893_1 Bus1=2782893-10865385.1.4 Phases=1 Model=8 zipv=(0.5,0,0.5,1,0,0,0) kv=0.1270 pf=0.92 kW=10.688868 Daily=RES-Tipo8
New Load.BT_2782893_2 Bus1=2782893-10865385.2.4 Phases=1 Model=8 zipv=(0.5,0,0.5,1,0,0,0) kv=0.1270 pf=0.92 kW=10.688868 Daily=RES-Tipo8
New Load.BT_2782893_3 Bus1=2782893-10865385.3.4 Phases=1 Model=8 zipv=(0.5,0,0.5,1,0,0,0) kv=0.1270 pf=0.92 kW=10.688868 Daily=RES-Tipo8
New Load.BT_2783111_1 Bus1=2783111-10868279v.1.4 Phases=1 Model=8 zipv=(0.5,0,0.5,1,0,0,0) kv=0.1100 pf=0.92 kW=0.804041 Daily=RUR-Tipo8
New Load.BT_2783111_2 Bus1=2783111-10868279v.2.4 Phases=1 Model=8 zipv=(0.5,0,0.5,1,0,0,0) kv=0.1100 pf=0.92 kW=0.804041 Daily=RUR-Tipo8
New Load.BT_2782838_1 Bus1=2782838-10868282.1.4 Phases=1 Model=8 zipv=(0.5,0,0.5,1,0,0,0) kv=0.1100 pf=0.92 kW=0.504021 Daily=RUR-Tipo8
New Load.BT_2782838_2 Bus1=2782838-10868282.2.4 Phases=1 Model=8 zipv=(0.5,0,0.5,1,0,0,0) kv=0.1100 pf=0.92 kW=0.504021 Daily=RUR-Tipo8
New Load.BT_2205317_1 Bus1=2205317-7498171v.1.4 Phases=1 Model=8 zipv=(0.5,0,0.5,1,0,0,0) kv=0.1100 pf=0.92 kW=0.541212 Daily=RUR-Tipo9
New Load.BT_2205317_2 Bus1=2205317-7498171v.2.4 Phases=1 Model=8 zipv=(0.5,0,0.5,1,0,0,0) kv=0.1100 pf=0.92 kW=0.541212 Daily=RUR-Tipo9
New Load.BT_2205274_1 Bus1=2205274-7497404.1.4 Phases=1 Model=8 zipv=(0.5,0,0.5,1,0,0,0) kv=0.1270 pf=0.92 kW=4.360616 Daily=RUR-Tipo9
New Load.BT_2205274_2 Bus1=2205274-7497404.2.4 Phases=1 Model=8 zipv=(0.5,0,0.5,1,0,0,0) kv=0.1270 pf=0.92 kW=4.360616 Daily=RUR-Tipo9
New Load.BT_2205274_3 Bus1=2205274-7497404.3.4 Phases=1 Model=8 zipv=(0.5,0,0.5,1,0,0,0) kv=0.1270 pf=0.92 kW=4.360616 Daily=RUR-Tipo9
New Load.BT_2205300_1 Bus1=2205300-7500252.1.4 Phases=1 Model=8 zipv=(0.5,0,0.5,1,0,0,0) kv=0.1270 pf=0.92 kW=8.672603 Daily=RUR-Tipo9
New Load.BT_2205300_2 Bus1=2205300-7500252.2.4 Phases=1 Model=8 zipv=(0.5,0,0.5,1,0,0,0) kv=0.1270 pf=0.92 kW=8.672603 Daily=RUR-Tipo9
New Load.BT_2205300_3 Bus1=2205300-7500252.3.4 Phases=1 Model=8 zipv=(0.5,0,0.5,1,0,0,0) kv=0.1270 pf=0.92 kW=8.672603 Daily=RUR-Tipo9
New Load.BT_2782512_1 Bus1=2782512-10863490.1.4 Phases=1 Model=8 zipv=(0.5,0,0.5,1,0,0,0) kv=0.1270 pf=0.92 kW=15.392105 Daily=RES-Tipo8
New Load.BT_2782512_2 Bus1=2782512-10863490.2.4 Phases=1 Model=8 zipv=(0.5,0,0.5,1,0,0,0) kv=0.1270 pf=0.92 kW=15.392105 Daily=RES-Tipo8
New Load.BT_2782512_3 Bus1=2782512-10863490.3.4 Phases=1 Model=8 zipv=(0.5,0,0.5,1,0,0,0) kv=0.1270 pf=0.92 kW=15.392105 Daily=RES-Tipo8
New Load.BT_2782533_1 Bus1=2782533-10863567.1.4 Phases=1 Model=8 zipv=(0.5,0,0.5,1,0,0,0) kv=0.1270 pf=0.92 kW=10.631247 Daily=RES-Tipo8
New Load.BT_2782533_2 Bus1=2782533-10863567.2.4 Phases=1 Model=8 zipv=(0.5,0,0.5,1,0,0,0) kv=0.1270 pf=0.92 kW=10.631247 Daily=RES-Tipo8
New Load.BT_2782533_3 Bus1=2782533-10863567.3.4 Phases=1 Model=8 zipv=(0.5,0,0.5,1,0,0,0) kv=0.1270 pf=0.92 kW=10.631247 Daily=RES-Tipo8
New Load.BT_2782458_1 Bus1=2782458-10862893.1.4 Phases=1 Model=8 zipv=(0.5,0,0.5,1,0,0,0) kv=0.1270 pf=0.92 kW=4.784982 Daily=RES-Tipo8
New Load.BT_2782458_2 Bus1=2782458-10862893.2.4 Phases=1 Model=8 zipv=(0.5,0,0.5,1,0,0,0) kv=0.1270 pf=0.92 kW=4.784982 Daily=RES-Tipo8
New Load.BT_2782458_3 Bus1=2782458-10862893.3.4 Phases=1 Model=8 zipv=(0.5,0,0.5,1,0,0,0) kv=0.1270 pf=0.92 kW=4.784982 Daily=RES-Tipo8
New Load.BT_2782498_1 Bus1=2782498-10863280.1.4 Phases=1 Model=8 zipv=(0.5,0,0.5,1,0,0,0) kv=0.1270 pf=0.92 kW=11.051795 Daily=RES-Tipo8
New Load.BT_2782498_2 Bus1=2782498-10863280.2.4 Phases=1 Model=8 zipv=(0.5,0,0.5,1,0,0,0) kv=0.1270 pf=0.92 kW=11.051795 Daily=RES-Tipo8
New Load.BT_2782498_3 Bus1=2782498-10863280.3.4 Phases=1 Model=8 zipv=(0.5,0,0.5,1,0,0,0) kv=0.1270 pf=0.92 kW=11.051795 Daily=RES-Tipo8
New Load.BT_2782673_1 Bus1=2782673-10864374.1.4 Phases=1 Model=8 zipv=(0.5,0,0.5,1,0,0,0) kv=0.1270 pf=0.92 kW=4.800954 Daily=RES-Tipo1
New Load.BT_2782673_2 Bus1=2782673-10864374.2.4 Phases=1 Model=8 zipv=(0.5,0,0.5,1,0,0,0) kv=0.1270 pf=0.92 kW=4.800954 Daily=RES-Tipo1
New Load.BT_2782673_3 Bus1=2782673-10864374.3.4 Phases=1 Model=8 zipv=(0.5,0,0.5,1,0,0,0) kv=0.1270 pf=0.92 kW=4.800954 Daily=RES-Tipo1
New Load.BT_2782746_1 Bus1=2782746-10864723.1.4 Phases=1 Model=8 zipv=(0.5,0,0.5,1,0,0,0) kv=0.1270 pf=0.92 kW=8.157452 Daily=RES-Tipo8
New Load.BT_2782746_2 Bus1=2782746-10864723.2.4 Phases=1 Model=8 zipv=(0.5,0,0.5,1,0,0,0) kv=0.1270 pf=0.92 kW=8.157452 Daily=RES-Tipo8
New Load.BT_2782746_3 Bus1=2782746-10864723.3.4 Phases=1 Model=8 zipv=(0.5,0,0.5,1,0,0,0) kv=0.1270 pf=0.92 kW=8.157452 Daily=RES-Tipo8
New Load.BT_2782818_1 Bus1=2782818-10865043.1.4 Phases=1 Model=8 zipv=(0.5,0,0.5,1,0,0,0) kv=0.1270 pf=0.92 kW=11.204785 Daily=RES-Tipo4
New Load.BT_2782818_2 Bus1=2782818-10865043.2.4 Phases=1 Model=8 zipv=(0.5,0,0.5,1,0,0,0) kv=0.1270 pf=0.92 kW=11.204785 Daily=RES-Tipo4
New Load.BT_2782818_3 Bus1=2782818-10865043.3.4 Phases=1 Model=8 zipv=(0.5,0,0.5,1,0,0,0) kv=0.1270 pf=0.92 kW=11.204785 Daily=RES-Tipo4
New Load.BT_2782688_1 Bus1=2782688-10864800.1.4 Phases=1 Model=8 zipv=(0.5,0,0.5,1,0,0,0) kv=0.1270 pf=0.92 kW=10.236849 Daily=RES-Tipo8
New Load.BT_2782688_2 Bus1=2782688-10864800.2.4 Phases=1 Model=8 zipv=(0.5,0,0.5,1,0,0,0) kv=0.1270 pf=0.92 kW=10.236849 Daily=RES-Tipo8
New Load.BT_2782688_3 Bus1=2782688-10864800.3.4 Phases=1 Model=8 zipv=(0.5,0,0.5,1,0,0,0) kv=0.1270 pf=0.92 kW=10.236849 Daily=RES-Tipo8
New Load.BT_2782765_1 Bus1=2782765-10864910.1.4 Phases=1 Model=8 zipv=(0.5,0,0.5,1,0,0,0) kv=0.1100 pf=0.92 kW=12.674541 Daily=RES-Tipo8
New Load.BT_2782765_2 Bus1=2782765-10864910.2.4 Phases=1 Model=8 zipv=(0.5,0,0.5,1,0,0,0) kv=0.1100 pf=0.92 kW=12.674541 Daily=RES-Tipo8
New Load.BT_2782747_1 Bus1=2782747-10864543.1.4 Phases=1 Model=8 zipv=(0.5,0,0.5,1,0,0,0) kv=0.1270 pf=0.92 kW=13.796283 Daily=RES-Tipo8
New Load.BT_2782747_2 Bus1=2782747-10864543.2.4 Phases=1 Model=8 zipv=(0.5,0,0.5,1,0,0,0) kv=0.1270 pf=0.92 kW=13.796283 Daily=RES-Tipo8
New Load.BT_2782747_3 Bus1=2782747-10864543.3.4 Phases=1 Model=8 zipv=(0.5,0,0.5,1,0,0,0) kv=0.1270 pf=0.92 kW=13.796283 Daily=RES-Tipo8
New Load.BT_2782705_1 Bus1=2782705-10864550.1.4 Phases=1 Model=8 zipv=(0.5,0,0.5,1,0,0,0) kv=0.1270 pf=0.92 kW=3.490648 Daily=RES-Tipo8
New Load.BT_2782705_2 Bus1=2782705-10864550.2.4 Phases=1 Model=8 zipv=(0.5,0,0.5,1,0,0,0) kv=0.1270 pf=0.92 kW=3.490648 Daily=RES-Tipo8
New Load.BT_2782705_3 Bus1=2782705-10864550.3.4 Phases=1 Model=8 zipv=(0.5,0,0.5,1,0,0,0) kv=0.1270 pf=0.92 kW=3.490648 Daily=RES-Tipo8
New Load.BT_2782683_1 Bus1=2782683-10864996.1.4 Phases=1 Model=8 zipv=(0.5,0,0.5,1,0,0,0) kv=0.1100 pf=0.92 kW=12.110842 Daily=RES-Tipo1
New Load.BT_2782683_2 Bus1=2782683-10864996.2.4 Phases=1 Model=8 zipv=(0.5,0,0.5,1,0,0,0) kv=0.1100 pf=0.92 kW=12.110842 Daily=RES-Tipo1
New Load.BT_2782674_1 Bus1=2782674-10864988.1.4 Phases=1 Model=8 zipv=(0.5,0,0.5,1,0,0,0) kv=0.1270 pf=0.92 kW=3.697397 Daily=RES-Tipo1
New Load.BT_2782674_2 Bus1=2782674-10864988.2.4 Phases=1 Model=8 zipv=(0.5,0,0.5,1,0,0,0) kv=0.1270 pf=0.92 kW=3.697397 Daily=RES-Tipo1
New Load.BT_2782674_3 Bus1=2782674-10864988.3.4 Phases=1 Model=8 zipv=(0.5,0,0.5,1,0,0,0) kv=0.1270 pf=0.92 kW=3.697397 Daily=RES-Tipo1
New Load.BT_3017372_1 Bus1=3017372-10867802.1.4 Phases=1 Model=8 zipv=(0.5,0,0.5,1,0,0,0) kv=0.1270 pf=0.92 kW=6.186936 Daily=RES-Tipo8
New Load.BT_3017372_2 Bus1=3017372-10867802.2.4 Phases=1 Model=8 zipv=(0.5,0,0.5,1,0,0,0) kv=0.1270 pf=0.92 kW=6.186936 Daily=RES-Tipo8
New Load.BT_3017372_3 Bus1=3017372-10867802.3.4 Phases=1 Model=8 zipv=(0.5,0,0.5,1,0,0,0) kv=0.1270 pf=0.92 kW=6.186936 Daily=RES-Tipo8
New Load.BT_3102475_1 Bus1=3102475-12359399.1.4 Phases=1 Model=8 zipv=(0.5,0,0.5,1,0,0,0) kv=0.1270 pf=0.92 kW=1.282717 Daily=RES-Tipo1
New Load.BT_3102475_2 Bus1=3102475-12359399.2.4 Phases=1 Model=8 zipv=(0.5,0,0.5,1,0,0,0) kv=0.1270 pf=0.92 kW=1.282717 Daily=RES-Tipo1
New Load.BT_3102475_3 Bus1=3102475-12359399.3.4 Phases=1 Model=8 zipv=(0.5,0,0.5,1,0,0,0) kv=0.1270 pf=0.92 kW=1.282717 Daily=RES-Tipo1
New Load.BT_2783107_1 Bus1=2783107-10865787.1.4 Phases=1 Model=8 zipv=(0.5,0,0.5,1,0,0,0) kv=0.1270 pf=0.92 kW=7.358201 Daily=RES-Tipo8
New Load.BT_2783107_2 Bus1=2783107-10865787.2.4 Phases=1 Model=8 zipv=(0.5,0,0.5,1,0,0,0) kv=0.1270 pf=0.92 kW=7.358201 Daily=RES-Tipo8
New Load.BT_2783107_3 Bus1=2783107-10865787.3.4 Phases=1 Model=8 zipv=(0.5,0,0.5,1,0,0,0) kv=0.1270 pf=0.92 kW=7.358201 Daily=RES-Tipo8
New Load.BT_2782907_1 Bus1=2782907-10866581.1.4 Phases=1 Model=8 zipv=(0.5,0,0.5,1,0,0,0) kv=0.1270 pf=0.92 kW=10.749676 Daily=RES-Tipo1
New Load.BT_2782907_2 Bus1=2782907-10866581.2.4 Phases=1 Model=8 zipv=(0.5,0,0.5,1,0,0,0) kv=0.1270 pf=0.92 kW=10.749676 Daily=RES-Tipo1
New Load.BT_2782907_3 Bus1=2782907-10866581.3.4 Phases=1 Model=8 zipv=(0.5,0,0.5,1,0,0,0) kv=0.1270 pf=0.92 kW=10.749676 Daily=RES-Tipo1
New Load.BT_2782964_1 Bus1=2782964-10865398.1.4 Phases=1 Model=8 zipv=(0.5,0,0.5,1,0,0,0) kv=0.1100 pf=0.92 kW=2.286096 Daily=RES-Tipo1
New Load.BT_2782964_2 Bus1=2782964-10865398.2.4 Phases=1 Model=8 zipv=(0.5,0,0.5,1,0,0,0) kv=0.1100 pf=0.92 kW=2.286096 Daily=RES-Tipo1
New Load.BT_2782740_1 Bus1=2782740-10864640v.1.4 Phases=1 Model=8 zipv=(0.5,0,0.5,1,0,0,0) kv=0.1100 pf=0.92 kW=0.159212 Daily=RUR-Tipo8
New Load.BT_2782740_2 Bus1=2782740-10864640v.2.4 Phases=1 Model=8 zipv=(0.5,0,0.5,1,0,0,0) kv=0.1100 pf=0.92 kW=0.159212 Daily=RUR-Tipo8
New Load.BT_2782745_1 Bus1=2782745-10864730.1.4 Phases=1 Model=8 zipv=(0.5,0,0.5,1,0,0,0) kv=0.1270 pf=0.92 kW=9.298393 Daily=RES-Tipo8
New Load.BT_2782745_2 Bus1=2782745-10864730.2.4 Phases=1 Model=8 zipv=(0.5,0,0.5,1,0,0,0) kv=0.1270 pf=0.92 kW=9.298393 Daily=RES-Tipo8
New Load.BT_2782745_3 Bus1=2782745-10864730.3.4 Phases=1 Model=8 zipv=(0.5,0,0.5,1,0,0,0) kv=0.1270 pf=0.92 kW=9.298393 Daily=RES-Tipo8
New Load.BT_2782719_1 Bus1=2782719-10864429.1.4 Phases=1 Model=8 zipv=(0.5,0,0.5,1,0,0,0) kv=0.1270 pf=0.92 kW=11.301352 Daily=RES-Tipo8
New Load.BT_2782719_2 Bus1=2782719-10864429.2.4 Phases=1 Model=8 zipv=(0.5,0,0.5,1,0,0,0) kv=0.1270 pf=0.92 kW=11.301352 Daily=RES-Tipo8
New Load.BT_2782719_3 Bus1=2782719-10864429.3.4 Phases=1 Model=8 zipv=(0.5,0,0.5,1,0,0,0) kv=0.1270 pf=0.92 kW=11.301352 Daily=RES-Tipo8
New Load.BT_2782665_1 Bus1=2782665-10864379.1.4 Phases=1 Model=8 zipv=(0.5,0,0.5,1,0,0,0) kv=0.1270 pf=0.92 kW=8.360872 Daily=RES-Tipo8
New Load.BT_2782665_2 Bus1=2782665-10864379.2.4 Phases=1 Model=8 zipv=(0.5,0,0.5,1,0,0,0) kv=0.1270 pf=0.92 kW=8.360872 Daily=RES-Tipo8
New Load.BT_2782665_3 Bus1=2782665-10864379.3.4 Phases=1 Model=8 zipv=(0.5,0,0.5,1,0,0,0) kv=0.1270 pf=0.92 kW=8.360872 Daily=RES-Tipo8
New Load.BT_2782711_1 Bus1=2782711-10864382.1.4 Phases=1 Model=8 zipv=(0.5,0,0.5,1,0,0,0) kv=0.1270 pf=0.92 kW=9.006406 Daily=RES-Tipo8
New Load.BT_2782711_2 Bus1=2782711-10864382.2.4 Phases=1 Model=8 zipv=(0.5,0,0.5,1,0,0,0) kv=0.1270 pf=0.92 kW=9.006406 Daily=RES-Tipo8
New Load.BT_2782711_3 Bus1=2782711-10864382.3.4 Phases=1 Model=8 zipv=(0.5,0,0.5,1,0,0,0) kv=0.1270 pf=0.92 kW=9.006406 Daily=RES-Tipo8
New Load.BT_2782752_1 Bus1=2782752-10864469.1.4 Phases=1 Model=8 zipv=(0.5,0,0.5,1,0,0,0) kv=0.1100 pf=0.92 kW=0.553473 Daily=RES-Tipo4
New Load.BT_2782752_2 Bus1=2782752-10864469.2.4 Phases=1 Model=8 zipv=(0.5,0,0.5,1,0,0,0) kv=0.1100 pf=0.92 kW=0.553473 Daily=RES-Tipo4
New Load.BT_2205070_1 Bus1=2205070-7498167.1.4 Phases=1 Model=8 zipv=(0.5,0,0.5,1,0,0,0) kv=0.1270 pf=0.92 kW=4.006607 Daily=RUR-Tipo9
New Load.BT_2205070_2 Bus1=2205070-7498167.2.4 Phases=1 Model=8 zipv=(0.5,0,0.5,1,0,0,0) kv=0.1270 pf=0.92 kW=4.006607 Daily=RUR-Tipo9
New Load.BT_2205070_3 Bus1=2205070-7498167.3.4 Phases=1 Model=8 zipv=(0.5,0,0.5,1,0,0,0) kv=0.1270 pf=0.92 kW=4.006607 Daily=RUR-Tipo9
New Load.BT_2204888_1 Bus1=2204888-7499134.1.4 Phases=1 Model=8 zipv=(0.5,0,0.5,1,0,0,0) kv=0.1270 pf=0.92 kW=8.603068 Daily=RUR-Tipo9
New Load.BT_2204888_2 Bus1=2204888-7499134.2.4 Phases=1 Model=8 zipv=(0.5,0,0.5,1,0,0,0) kv=0.1270 pf=0.92 kW=8.603068 Daily=RUR-Tipo9
New Load.BT_2204888_3 Bus1=2204888-7499134.3.4 Phases=1 Model=8 zipv=(0.5,0,0.5,1,0,0,0) kv=0.1270 pf=0.92 kW=8.603068 Daily=RUR-Tipo9
New Load.BT_2205068_1 Bus1=2205068-7497406.1.4 Phases=1 Model=8 zipv=(0.5,0,0.5,1,0,0,0) kv=0.1270 pf=0.92 kW=12.670064 Daily=RES-Tipo5
New Load.BT_2205068_2 Bus1=2205068-7497406.2.4 Phases=1 Model=8 zipv=(0.5,0,0.5,1,0,0,0) kv=0.1270 pf=0.92 kW=12.670064 Daily=RES-Tipo5
New Load.BT_2205068_3 Bus1=2205068-7497406.3.4 Phases=1 Model=8 zipv=(0.5,0,0.5,1,0,0,0) kv=0.1270 pf=0.92 kW=12.670064 Daily=RES-Tipo5
New Load.BT_2204886_1 Bus1=2204886-7498937.1.4 Phases=1 Model=8 zipv=(0.5,0,0.5,1,0,0,0) kv=0.1100 pf=0.92 kW=0.288178 Daily=RUR-Tipo9
New Load.BT_2204886_2 Bus1=2204886-7498937.2.4 Phases=1 Model=8 zipv=(0.5,0,0.5,1,0,0,0) kv=0.1100 pf=0.92 kW=0.288178 Daily=RUR-Tipo9
New Load.BT_2205103_1 Bus1=2205103-7498182v.1.4 Phases=1 Model=8 zipv=(0.5,0,0.5,1,0,0,0) kv=0.1100 pf=0.92 kW=0.328877 Daily=RES-Tipo9
New Load.BT_2205103_2 Bus1=2205103-7498182v.2.4 Phases=1 Model=8 zipv=(0.5,0,0.5,1,0,0,0) kv=0.1100 pf=0.92 kW=0.328877 Daily=RES-Tipo9
New Load.BT_2204887_1 Bus1=2204887-7497934.1.4 Phases=1 Model=8 zipv=(0.5,0,0.5,1,0,0,0) kv=0.1270 pf=0.92 kW=3.117384 Daily=RUR-Tipo9
New Load.BT_2204887_2 Bus1=2204887-7497934.2.4 Phases=1 Model=8 zipv=(0.5,0,0.5,1,0,0,0) kv=0.1270 pf=0.92 kW=3.117384 Daily=RUR-Tipo9
New Load.BT_2204887_3 Bus1=2204887-7497934.3.4 Phases=1 Model=8 zipv=(0.5,0,0.5,1,0,0,0) kv=0.1270 pf=0.92 kW=3.117384 Daily=RUR-Tipo9
New Load.BT_2205085_1 Bus1=2205085-7499456.1.4 Phases=1 Model=8 zipv=(0.5,0,0.5,1,0,0,0) kv=0.1100 pf=0.92 kW=0.465644 Daily=RUR-Tipo9
New Load.BT_2205085_2 Bus1=2205085-7499456.2.4 Phases=1 Model=8 zipv=(0.5,0,0.5,1,0,0,0) kv=0.1100 pf=0.92 kW=0.465644 Daily=RUR-Tipo9
New Load.BT_2783023_1 Bus1=2783023-10867387v.1.4 Phases=1 Model=8 zipv=(0.5,0,0.5,1,0,0,0) kv=0.1100 pf=0.92 kW=0.030733 Daily=RUR-Tipo1
New Load.BT_2783023_2 Bus1=2783023-10867387v.2.4 Phases=1 Model=8 zipv=(0.5,0,0.5,1,0,0,0) kv=0.1100 pf=0.92 kW=0.030733 Daily=RUR-Tipo1
New Load.BT_2782900_1 Bus1=2782900-10867440v.1.4 Phases=1 Model=8 zipv=(0.5,0,0.5,1,0,0,0) kv=0.1100 pf=0.92 kW=0.382986 Daily=RUR-Tipo8
New Load.BT_2782900_2 Bus1=2782900-10867440v.2.4 Phases=1 Model=8 zipv=(0.5,0,0.5,1,0,0,0) kv=0.1100 pf=0.92 kW=0.382986 Daily=RUR-Tipo8
New Load.BT_2782946_1 Bus1=2782946-10867443.1.4 Phases=1 Model=8 zipv=(0.5,0,0.5,1,0,0,0) kv=0.1100 pf=0.92 kW=0.255034 Daily=RUR-Tipo2
New Load.BT_2782946_2 Bus1=2782946-10867443.2.4 Phases=1 Model=8 zipv=(0.5,0,0.5,1,0,0,0) kv=0.1100 pf=0.92 kW=0.255034 Daily=RUR-Tipo2
New Load.BT_2783005_1 Bus1=2783005-10867444v.1.4 Phases=1 Model=8 zipv=(0.5,0,0.5,1,0,0,0) kv=0.1100 pf=0.92 kW=2.280349 Daily=RUR-Tipo8
New Load.BT_2783005_2 Bus1=2783005-10867444v.2.4 Phases=1 Model=8 zipv=(0.5,0,0.5,1,0,0,0) kv=0.1100 pf=0.92 kW=2.280349 Daily=RUR-Tipo8
New Load.BT_2783187_1 Bus1=2783187-10867450v.1.4 Phases=1 Model=8 zipv=(0.5,0,0.5,1,0,0,0) kv=0.1100 pf=0.92 kW=0.135219 Daily=RUR-Tipo1
New Load.BT_2783187_2 Bus1=2783187-10867450v.2.4 Phases=1 Model=8 zipv=(0.5,0,0.5,1,0,0,0) kv=0.1100 pf=0.92 kW=0.135219 Daily=RUR-Tipo1
New Load.BT_2782861_1 Bus1=2782861-10867457v.1.4 Phases=1 Model=8 zipv=(0.5,0,0.5,1,0,0,0) kv=0.1100 pf=0.92 kW=0.133055 Daily=RUR-Tipo1
New Load.BT_2782861_2 Bus1=2782861-10867457v.2.4 Phases=1 Model=8 zipv=(0.5,0,0.5,1,0,0,0) kv=0.1100 pf=0.92 kW=0.133055 Daily=RUR-Tipo1
New Load.BT_2783161_1 Bus1=2783161-10867462v.1.4 Phases=1 Model=8 zipv=(0.5,0,0.5,1,0,0,0) kv=0.1100 pf=0.92 kW=0.020548 Daily=RES-Tipo1
New Load.BT_2783161_2 Bus1=2783161-10867462v.2.4 Phases=1 Model=8 zipv=(0.5,0,0.5,1,0,0,0) kv=0.1100 pf=0.92 kW=0.020548 Daily=RES-Tipo1
New Load.BT_2782877_1 Bus1=2782877-10868277.1.4 Phases=1 Model=8 zipv=(0.5,0,0.5,1,0,0,0) kv=0.1270 pf=0.92 kW=8.190763 Daily=RES-Tipo8
New Load.BT_2782877_2 Bus1=2782877-10868277.2.4 Phases=1 Model=8 zipv=(0.5,0,0.5,1,0,0,0) kv=0.1270 pf=0.92 kW=8.190763 Daily=RES-Tipo8
New Load.BT_2782877_3 Bus1=2782877-10868277.3.4 Phases=1 Model=8 zipv=(0.5,0,0.5,1,0,0,0) kv=0.1270 pf=0.92 kW=8.190763 Daily=RES-Tipo8
New Load.BT_2783009_1 Bus1=2783009-10867814v.1.4 Phases=1 Model=8 zipv=(0.5,0,0.5,1,0,0,0) kv=0.1100 pf=0.92 kW=0.082322 Daily=RES-Tipo1
New Load.BT_2783009_2 Bus1=2783009-10867814v.2.4 Phases=1 Model=8 zipv=(0.5,0,0.5,1,0,0,0) kv=0.1100 pf=0.92 kW=0.082322 Daily=RES-Tipo1
New Load.BT_2783143_1 Bus1=2783143-10866392.1.4 Phases=1 Model=8 zipv=(0.5,0,0.5,1,0,0,0) kv=0.1270 pf=0.92 kW=0.118616 Daily=RUR-Tipo2
New Load.BT_2783143_2 Bus1=2783143-10866392.2.4 Phases=1 Model=8 zipv=(0.5,0,0.5,1,0,0,0) kv=0.1270 pf=0.92 kW=0.118616 Daily=RUR-Tipo2
New Load.BT_2783143_3 Bus1=2783143-10866392.3.4 Phases=1 Model=8 zipv=(0.5,0,0.5,1,0,0,0) kv=0.1270 pf=0.92 kW=0.118616 Daily=RUR-Tipo2
New Load.BT_3109529_1 Bus1=3109529-10867892v.1.4 Phases=1 Model=8 zipv=(0.5,0,0.5,1,0,0,0) kv=0.1100 pf=0.92 kW=0.129411 Daily=RES-Tipo5
New Load.BT_3109529_2 Bus1=3109529-10867892v.2.4 Phases=1 Model=8 zipv=(0.5,0,0.5,1,0,0,0) kv=0.1100 pf=0.92 kW=0.129411 Daily=RES-Tipo5
New Load.BT_2782534_1 Bus1=2782534-10862809.1.4 Phases=1 Model=8 zipv=(0.5,0,0.5,1,0,0,0) kv=0.1270 pf=0.92 kW=9.101132 Daily=RES-Tipo8
New Load.BT_2782534_2 Bus1=2782534-10862809.2.4 Phases=1 Model=8 zipv=(0.5,0,0.5,1,0,0,0) kv=0.1270 pf=0.92 kW=9.101132 Daily=RES-Tipo8
New Load.BT_2782534_3 Bus1=2782534-10862809.3.4 Phases=1 Model=8 zipv=(0.5,0,0.5,1,0,0,0) kv=0.1270 pf=0.92 kW=9.101132 Daily=RES-Tipo8
New Load.BT_2782481_1 Bus1=2782481-10862817.1.4 Phases=1 Model=8 zipv=(0.5,0,0.5,1,0,0,0) kv=0.1270 pf=0.92 kW=5.534986 Daily=RES-Tipo8
New Load.BT_2782481_2 Bus1=2782481-10862817.2.4 Phases=1 Model=8 zipv=(0.5,0,0.5,1,0,0,0) kv=0.1270 pf=0.92 kW=5.534986 Daily=RES-Tipo8
New Load.BT_2782481_3 Bus1=2782481-10862817.3.4 Phases=1 Model=8 zipv=(0.5,0,0.5,1,0,0,0) kv=0.1270 pf=0.92 kW=5.534986 Daily=RES-Tipo8
New Load.BT_2782480_1 Bus1=2782480-10862819.1.4 Phases=1 Model=8 zipv=(0.5,0,0.5,1,0,0,0) kv=0.1270 pf=0.92 kW=6.975224 Daily=COM-Tipo3
New Load.BT_2782480_2 Bus1=2782480-10862819.2.4 Phases=1 Model=8 zipv=(0.5,0,0.5,1,0,0,0) kv=0.1270 pf=0.92 kW=6.975224 Daily=COM-Tipo3
New Load.BT_2782480_3 Bus1=2782480-10862819.3.4 Phases=1 Model=8 zipv=(0.5,0,0.5,1,0,0,0) kv=0.1270 pf=0.92 kW=6.975224 Daily=COM-Tipo3
New Load.BT_3111759_1 Bus1=3111759-12423518.1.4 Phases=1 Model=8 zipv=(0.5,0,0.5,1,0,0,0) kv=0.1270 pf=0.92 kW=0.818881 Daily=RES-Tipo8
New Load.BT_3111759_2 Bus1=3111759-12423518.2.4 Phases=1 Model=8 zipv=(0.5,0,0.5,1,0,0,0) kv=0.1270 pf=0.92 kW=0.818881 Daily=RES-Tipo8
New Load.BT_3111759_3 Bus1=3111759-12423518.3.4 Phases=1 Model=8 zipv=(0.5,0,0.5,1,0,0,0) kv=0.1270 pf=0.92 kW=0.818881 Daily=RES-Tipo8
New Load.BT_2782487_1 Bus1=2782487-10863577.1.4 Phases=1 Model=8 zipv=(0.5,0,0.5,1,0,0,0) kv=0.1270 pf=0.92 kW=6.855201 Daily=RES-Tipo8
New Load.BT_2782487_2 Bus1=2782487-10863577.2.4 Phases=1 Model=8 zipv=(0.5,0,0.5,1,0,0,0) kv=0.1270 pf=0.92 kW=6.855201 Daily=RES-Tipo8
New Load.BT_2782487_3 Bus1=2782487-10863577.3.4 Phases=1 Model=8 zipv=(0.5,0,0.5,1,0,0,0) kv=0.1270 pf=0.92 kW=6.855201 Daily=RES-Tipo8
New Load.BT_2782786_1 Bus1=2782786-10865783.1.4 Phases=1 Model=8 zipv=(0.5,0,0.5,1,0,0,0) kv=0.1270 pf=0.92 kW=9.877854 Daily=RES-Tipo8
New Load.BT_2782786_2 Bus1=2782786-10865783.2.4 Phases=1 Model=8 zipv=(0.5,0,0.5,1,0,0,0) kv=0.1270 pf=0.92 kW=9.877854 Daily=RES-Tipo8
New Load.BT_2782786_3 Bus1=2782786-10865783.3.4 Phases=1 Model=8 zipv=(0.5,0,0.5,1,0,0,0) kv=0.1270 pf=0.92 kW=9.877854 Daily=RES-Tipo8
New Load.BT_2783000_1 Bus1=2783000-10867547.1.4 Phases=1 Model=8 zipv=(0.5,0,0.5,1,0,0,0) kv=0.1270 pf=0.92 kW=4.837895 Daily=RES-Tipo8
New Load.BT_2783000_2 Bus1=2783000-10867547.2.4 Phases=1 Model=8 zipv=(0.5,0,0.5,1,0,0,0) kv=0.1270 pf=0.92 kW=4.837895 Daily=RES-Tipo8
New Load.BT_2783000_3 Bus1=2783000-10867547.3.4 Phases=1 Model=8 zipv=(0.5,0,0.5,1,0,0,0) kv=0.1270 pf=0.92 kW=4.837895 Daily=RES-Tipo8
New Load.BT_2782865_1 Bus1=2782865-10867705v.1.4 Phases=1 Model=8 zipv=(0.5,0,0.5,1,0,0,0) kv=0.1100 pf=0.92 kW=0.035925 Daily=RUR-Tipo1
New Load.BT_2782865_2 Bus1=2782865-10867705v.2.4 Phases=1 Model=8 zipv=(0.5,0,0.5,1,0,0,0) kv=0.1100 pf=0.92 kW=0.035925 Daily=RUR-Tipo1
New Load.BT_2783112_1 Bus1=2783112-10867594v.1.4 Phases=1 Model=8 zipv=(0.5,0,0.5,1,0,0,0) kv=0.1100 pf=0.92 kW=0.494144 Daily=RUR-Tipo2
New Load.BT_2783112_2 Bus1=2783112-10867594v.2.4 Phases=1 Model=8 zipv=(0.5,0,0.5,1,0,0,0) kv=0.1100 pf=0.92 kW=0.494144 Daily=RUR-Tipo2
New Load.BT_2783151_1 Bus1=2783151-10867438v.1.4 Phases=1 Model=8 zipv=(0.5,0,0.5,1,0,0,0) kv=0.1100 pf=0.92 kW=0.437116 Daily=RUR-Tipo8
New Load.BT_2783151_2 Bus1=2783151-10867438v.2.4 Phases=1 Model=8 zipv=(0.5,0,0.5,1,0,0,0) kv=0.1100 pf=0.92 kW=0.437116 Daily=RUR-Tipo8
New Load.BT_2783059_1 Bus1=2783059-10867796v.1.4 Phases=1 Model=8 zipv=(0.5,0,0.5,1,0,0,0) kv=0.1100 pf=0.92 kW=0.121301 Daily=RUR-Tipo8
New Load.BT_2783059_2 Bus1=2783059-10867796v.2.4 Phases=1 Model=8 zipv=(0.5,0,0.5,1,0,0,0) kv=0.1100 pf=0.92 kW=0.121301 Daily=RUR-Tipo8
New Load.BT_2782835_1 Bus1=2782835-10867803v.1.4 Phases=1 Model=8 zipv=(0.5,0,0.5,1,0,0,0) kv=0.1100 pf=0.92 kW=0.653226 Daily=RUR-Tipo8
New Load.BT_2782835_2 Bus1=2782835-10867803v.2.4 Phases=1 Model=8 zipv=(0.5,0,0.5,1,0,0,0) kv=0.1100 pf=0.92 kW=0.653226 Daily=RUR-Tipo8
New Load.BT_2783060_1 Bus1=2783060-10867804v.1.4 Phases=1 Model=8 zipv=(0.5,0,0.5,1,0,0,0) kv=0.1100 pf=0.92 kW=0.123466 Daily=RES-Tipo8
New Load.BT_2783060_2 Bus1=2783060-10867804v.2.4 Phases=1 Model=8 zipv=(0.5,0,0.5,1,0,0,0) kv=0.1100 pf=0.92 kW=0.123466 Daily=RES-Tipo8
New Load.BT_2782494_1 Bus1=2782494-10863276.1.4 Phases=1 Model=8 zipv=(0.5,0,0.5,1,0,0,0) kv=0.1270 pf=0.92 kW=7.058251 Daily=RES-Tipo8
New Load.BT_2782494_2 Bus1=2782494-10863276.2.4 Phases=1 Model=8 zipv=(0.5,0,0.5,1,0,0,0) kv=0.1270 pf=0.92 kW=7.058251 Daily=RES-Tipo8
New Load.BT_2782494_3 Bus1=2782494-10863276.3.4 Phases=1 Model=8 zipv=(0.5,0,0.5,1,0,0,0) kv=0.1270 pf=0.92 kW=7.058251 Daily=RES-Tipo8
New Load.BT_2782899_1 Bus1=2782899-10867055.1.4 Phases=1 Model=8 zipv=(0.5,0,0.5,1,0,0,0) kv=0.1100 pf=0.92 kW=0.529877 Daily=RES-Tipo8
New Load.BT_2782899_2 Bus1=2782899-10867055.2.4 Phases=1 Model=8 zipv=(0.5,0,0.5,1,0,0,0) kv=0.1100 pf=0.92 kW=0.529877 Daily=RES-Tipo8
New Load.BT_2782949_1 Bus1=2782949-10867806.1.4 Phases=1 Model=8 zipv=(0.5,0,0.5,1,0,0,0) kv=0.1100 pf=0.92 kW=0.772075 Daily=RUR-Tipo8
New Load.BT_2782949_2 Bus1=2782949-10867806.2.4 Phases=1 Model=8 zipv=(0.5,0,0.5,1,0,0,0) kv=0.1100 pf=0.92 kW=0.772075 Daily=RUR-Tipo8
New Load.BT_2782769_1 Bus1=2782769-10867834.1.4 Phases=1 Model=8 zipv=(0.5,0,0.5,1,0,0,0) kv=0.1100 pf=0.92 kW=0.272445 Daily=RES-Tipo2
New Load.BT_2782769_2 Bus1=2782769-10867834.2.4 Phases=1 Model=8 zipv=(0.5,0,0.5,1,0,0,0) kv=0.1100 pf=0.92 kW=0.272445 Daily=RES-Tipo2
New Load.BT_2782797_1 Bus1=2782797-10867357v.1.4 Phases=1 Model=8 zipv=(0.5,0,0.5,1,0,0,0) kv=0.1100 pf=0.92 kW=0.026315 Daily=RUR-Tipo1
New Load.BT_2782797_2 Bus1=2782797-10867357v.2.4 Phases=1 Model=8 zipv=(0.5,0,0.5,1,0,0,0) kv=0.1100 pf=0.92 kW=0.026315 Daily=RUR-Tipo1
New Load.BT_2204820_1 Bus1=2204820-7497515.1.4 Phases=1 Model=8 zipv=(0.5,0,0.5,1,0,0,0) kv=0.1100 pf=0.92 kW=2.002678 Daily=RUR-Tipo9
New Load.BT_2204820_2 Bus1=2204820-7497515.2.4 Phases=1 Model=8 zipv=(0.5,0,0.5,1,0,0,0) kv=0.1100 pf=0.92 kW=2.002678 Daily=RUR-Tipo9
New Load.BT_2205071_1 Bus1=2205071-7500492.1.4 Phases=1 Model=8 zipv=(0.5,0,0.5,1,0,0,0) kv=0.1270 pf=0.92 kW=3.724749 Daily=RES-Tipo4
New Load.BT_2205071_2 Bus1=2205071-7500492.2.4 Phases=1 Model=8 zipv=(0.5,0,0.5,1,0,0,0) kv=0.1270 pf=0.92 kW=3.724749 Daily=RES-Tipo4
New Load.BT_2205071_3 Bus1=2205071-7500492.3.4 Phases=1 Model=8 zipv=(0.5,0,0.5,1,0,0,0) kv=0.1270 pf=0.92 kW=3.724749 Daily=RES-Tipo4
New Load.BT_3124289_1 Bus1=3124289-7500377.1.4 Phases=1 Model=8 zipv=(0.5,0,0.5,1,0,0,0) kv=0.1270 pf=0.92 kW=1.878452 Daily=RES-Tipo4
New Load.BT_3124289_2 Bus1=3124289-7500377.2.4 Phases=1 Model=8 zipv=(0.5,0,0.5,1,0,0,0) kv=0.1270 pf=0.92 kW=1.878452 Daily=RES-Tipo4
New Load.BT_3124289_3 Bus1=3124289-7500377.3.4 Phases=1 Model=8 zipv=(0.5,0,0.5,1,0,0,0) kv=0.1270 pf=0.92 kW=1.878452 Daily=RES-Tipo4
New Load.BT_2205100_1 Bus1=2205100-7499965.1.4 Phases=1 Model=8 zipv=(0.5,0,0.5,1,0,0,0) kv=0.1100 pf=0.92 kW=0.192644 Daily=RES-Tipo9
New Load.BT_2205100_2 Bus1=2205100-7499965.2.4 Phases=1 Model=8 zipv=(0.5,0,0.5,1,0,0,0) kv=0.1100 pf=0.92 kW=0.192644 Daily=RES-Tipo9
New Load.BT_2204853_1 Bus1=2204853-7500360.1.4 Phases=1 Model=8 zipv=(0.5,0,0.5,1,0,0,0) kv=0.1100 pf=0.92 kW=0.715993 Daily=RUR-Tipo9
New Load.BT_2204853_2 Bus1=2204853-7500360.2.4 Phases=1 Model=8 zipv=(0.5,0,0.5,1,0,0,0) kv=0.1100 pf=0.92 kW=0.715993 Daily=RUR-Tipo9
New Load.BT_2204850_1 Bus1=2204850-7500355v.1.4 Phases=1 Model=8 zipv=(0.5,0,0.5,1,0,0,0) kv=0.1100 pf=0.92 kW=0.318760 Daily=RUR-Tipo9
New Load.BT_2204850_2 Bus1=2204850-7500355v.2.4 Phases=1 Model=8 zipv=(0.5,0,0.5,1,0,0,0) kv=0.1100 pf=0.92 kW=0.318760 Daily=RUR-Tipo9
New Load.BT_2204706_1 Bus1=2204706-7500364v.1.4 Phases=1 Model=8 zipv=(0.5,0,0.5,1,0,0,0) kv=0.1100 pf=0.92 kW=0.152699 Daily=RUR-Tipo1
New Load.BT_2204706_2 Bus1=2204706-7500364v.2.4 Phases=1 Model=8 zipv=(0.5,0,0.5,1,0,0,0) kv=0.1100 pf=0.92 kW=0.152699 Daily=RUR-Tipo1
New Load.BT_2204884_1 Bus1=2204884-7499383.1.4 Phases=1 Model=8 zipv=(0.5,0,0.5,1,0,0,0) kv=0.1270 pf=0.92 kW=0.488553 Daily=RUR-Tipo9
New Load.BT_2204884_2 Bus1=2204884-7499383.2.4 Phases=1 Model=8 zipv=(0.5,0,0.5,1,0,0,0) kv=0.1270 pf=0.92 kW=0.488553 Daily=RUR-Tipo9
New Load.BT_2204884_3 Bus1=2204884-7499383.3.4 Phases=1 Model=8 zipv=(0.5,0,0.5,1,0,0,0) kv=0.1270 pf=0.92 kW=0.488553 Daily=RUR-Tipo9
New Load.BT_2205319_1 Bus1=2205319-7497397v.1.4 Phases=1 Model=8 zipv=(0.5,0,0.5,1,0,0,0) kv=0.1100 pf=0.92 kW=0.334226 Daily=RUR-Tipo9
New Load.BT_2205319_2 Bus1=2205319-7497397v.2.4 Phases=1 Model=8 zipv=(0.5,0,0.5,1,0,0,0) kv=0.1100 pf=0.92 kW=0.334226 Daily=RUR-Tipo9
New Load.BT_2204711_1 Bus1=2204711-7497410v.1.4 Phases=1 Model=8 zipv=(0.5,0,0.5,1,0,0,0) kv=0.1100 pf=0.92 kW=1.004240 Daily=RUR-Tipo9
New Load.BT_2204711_2 Bus1=2204711-7497410v.2.4 Phases=1 Model=8 zipv=(0.5,0,0.5,1,0,0,0) kv=0.1100 pf=0.92 kW=1.004240 Daily=RUR-Tipo9
New Load.BT_2205287_1 Bus1=2205287-7497413v.1.4 Phases=1 Model=8 zipv=(0.5,0,0.5,1,0,0,0) kv=0.1100 pf=0.92 kW=0.599808 Daily=RUR-Tipo9
...

! --- cargas de media tensao (UCMT_tab) ---
New Load.MT_16088-12377964_0 Bus1=16088-12377964.1.2.3 Phases=3 Conn=wye Model=8 zipv=(0.5,0,0.5,1,0,0,0) kv=13.8000 pf=0.92 kW=129.7285 Daily=MT-Tipo2
New Load.MT_25448-12704419_1 Bus1=25448-12704419.1.2.3 Phases=3 Conn=wye Model=8 zipv=(0.5,0,0.5,1,0,0,0) kv=13.8000 pf=0.92 kW=16.3180 Daily=MT-Tipo2
New Load.MT_16087-12162143_2 Bus1=16087-12162143.1.2.3 Phases=3 Conn=wye Model=8 zipv=(0.5,0,0.5,1,0,0,0) kv=13.8000 pf=0.92 kW=53.9033 Daily=MT-Tipo3
New Load.MT_25448-12569051_3 Bus1=25448-12569051.1.2.3 Phases=3 Conn=wye Model=8 zipv=(0.5,0,0.5,1,0,0,0) kv=13.8000 pf=0.92 kW=5.9441 Daily=MT-Tipo2
New Load.MT_16085-12024565_4 Bus1=16085-12024565.1.2.3 Phases=3 Conn=wye Model=8 zipv=(0.5,0,0.5,1,0,0,0) kv=13.8000 pf=0.92 kW=62.7603 Daily=MT-Tipo7
New Load.MT_16085-10863483_5 Bus1=16085-10863483.1.2.3 Phases=3 Conn=wye Model=8 zipv=(0.5,0,0.5,1,0,0,0) kv=13.8000 pf=0.92 kW=3.4412 Daily=MT-Tipo1
New Load.MT_16085-12613870_6 Bus1=16085-12613870.1.2.3 Phases=3 Conn=wye Model=8 zipv=(0.5,0,0.5,1,0,0,0) kv=13.8000 pf=0.92 kW=1.6278 Daily=MT-Tipo1
New Load.MT_16087-10864808_7 Bus1=16087-10864808.1.2.3 Phases=3 Conn=wye Model=8 zipv=(0.5,0,0.5,1,0,0,0) kv=13.8000 pf=0.92 kW=0.4875 Daily=MT-Tipo3
New Load.MT_16087-10864809_8 Bus1=16087-10864809.1.2.3 Phases=3 Conn=wye Model=8 zipv=(0.5,0,0.5,1,0,0,0) kv=13.8000 pf=0.92 kW=14.6219 Daily=MT-Tipo1
New Load.MT_25448-12609904_9 Bus1=25448-12609904.1.2.3 Phases=3 Conn=wye Model=8 zipv=(0.5,0,0.5,1,0,0,0) kv=13.8000 pf=0.92 kW=9.8849 Daily=MT-Tipo3
New Load.MT_16087-12522567_10 Bus1=16087-12522567.1.2.3 Phases=3 Conn=wye Model=8 zipv=(0.5,0,0.5,1,0,0,0) kv=13.8000 pf=0.92 kW=3.6129 Daily=MT-Tipo3
New Load.MT_16088-10865388_12 Bus1=16088-10865388.1.2.3 Phases=3 Conn=wye Model=8 zipv=(0.5,0,0.5,1,0,0,0) kv=13.8000 pf=0.92 kW=57.0682 Daily=MT-Tipo9
New Load.MT_16088-12000686_13 Bus1=16088-12000686.1.2.3 Phases=3 Conn=wye Model=8 zipv=(0.5,0,0.5,1,0,0,0) kv=13.8000 pf=0.92 kW=0.8712 Daily=MT-Tipo3
New Load.MT_25448-12815332_14 Bus1=25448-12815332.1.2.3 Phases=3 Conn=wye Model=8 zipv=(0.5,0,0.5,1,0,0,0) kv=13.8000 pf=0.92 kW=31.4644 Daily=MT-Tipo7
New Load.MT_25448-12487508_15 Bus1=25448-12487508.1.2.3 Phases=3 Conn=wye Model=8 zipv=(0.5,0,0.5,1,0,0,0) kv=13.8000 pf=0.92 kW=3.9946 Daily=MT-Tipo2
New Load.MT_16085-10863595_16 Bus1=16085-10863595.1.2.3 Phases=3 Conn=wye Model=8 zipv=(0.5,0,0.5,1,0,0,0) kv=13.8000 pf=0.92 kW=2.9248 Daily=MT-Tipo1
New Load.MT_25448-7497952_17 Bus1=25448-7497952.1.2.3 Phases=3 Conn=wye Model=8 zipv=(0.5,0,0.5,1,0,0,0) kv=13.8000 pf=0.92 kW=11.0761 Daily=MT-Tipo7
New Load.MT_16088-12510727_18 Bus1=16088-12510727.1.2.3 Phases=3 Conn=wye Model=8 zipv=(0.5,0,0.5,1,0,0,0) kv=13.8000 pf=0.92 kW=3.4289 Daily=MT-Tipo2
New Load.MT_16088-12524695_19 Bus1=16088-12524695.1.2.3 Phases=3 Conn=wye Model=8 zipv=(0.5,0,0.5,1,0,0,0) kv=13.8000 pf=0.92 kW=6.8461 Daily=MT-Tipo8
New Load.MT_16087-10864637_20 Bus1=16087-10864637.1.2.3 Phases=3 Conn=wye Model=8 zipv=(0.5,0,0.5,1,0,0,0) kv=13.8000 pf=0.92 kW=2.3374 Daily=MT-Tipo3
New Load.MT_16088-10866233_21 Bus1=16088-10866233.1.2.3 Phases=3 Conn=wye Model=8 zipv=(0.5,0,0.5,1,0,0,0) kv=13.8000 pf=0.92 kW=14.5283 Daily=MT-Tipo2
New Load.MT_16088-12565713_22 Bus1=16088-12565713.1.2.3 Phases=3 Conn=wye Model=8 zipv=(0.5,0,0.5,1,0,0,0) kv=13.8000 pf=0.92 kW=293.4175 Daily=MT-Tipo3
New Load.MT_16087-10864806_23 Bus1=16087-10864806.1.2.3 Phases=3 Conn=wye Model=8 zipv=(0.5,0,0.5,1,0,0,0) kv=13.8000 pf=0.92 kW=3.8952 Daily=MT-Tipo1
New Load.MT_25448-12564770_24 Bus1=25448-12564770.1.2.3 Phases=3 Conn=wye Model=8 zipv=(0.5,0,0.5,1,0,0,0) kv=13.8000 pf=0.92 kW=6.9952 Daily=MT-Tipo3
New Load.MT_25448-7497933_25 Bus1=25448-7497933.1.2.3 Phases=3 Conn=wye Model=8 zipv=(0.5,0,0.5,1,0,0,0) kv=13.8000 pf=0.92 kW=0.5768 Daily=MT-Tipo2
New Load.MT_25448-7498185_26 Bus1=25448-7498185.1.2.3 Phases=3 Conn=wye Model=8 zipv=(0.5,0,0.5,1,0,0,0) kv=13.8000 pf=0.92 kW=5.5224 Daily=MT-Tipo1
New Load.MT_16088-12359845_27 Bus1=16088-12359845.1.2.3 Phases=3 Conn=wye Model=8 zipv=(0.5,0,0.5,1,0,0,0) kv=13.8000 pf=0.92 kW=5.3680 Daily=MT-Tipo2
New Load.MT_16088-10866557_28 Bus1=16088-10866557.1.2.3 Phases=3 Conn=wye Model=8 zipv=(0.5,0,0.5,1,0,0,0) kv=13.8000 pf=0.92 kW=2.9090 Daily=MT-Tipo1
New Load.MT_25448-11430036_29 Bus1=25448-11430036.1.2.3 Phases=3 Conn=wye Model=8 zipv=(0.5,0,0.5,1,0,0,0) kv=13.8000 pf=0.92 kW=8.3660 Daily=MT-Tipo7
New Load.MT_25448-7498175_30 Bus1=25448-7498175.1.2.3 Phases=3 Conn=wye Model=8 zipv=(0.5,0,0.5,1,0,0,0) kv=13.8000 pf=0.92 kW=9.0723 Daily=MT-Tipo1
New Load.MT_16087-10864992_31 Bus1=16087-10864992.1.2.3 Phases=3 Conn=wye Model=8 zipv=(0.5,0,0.5,1,0,0,0) kv=13.8000 pf=0.92 kW=0.4709 Daily=MT-Tipo3
New Load.MT_16085-10863381_32 Bus1=16085-10863381.1.2.3 Phases=3 Conn=wye Model=8 zipv=(0.5,0,0.5,1,0,0,0) kv=13.8000 pf=0.92 kW=6.2588 Daily=MT-Tipo3
New Load.MT_25448-12490444_33 Bus1=25448-12490444.1.2.3 Phases=3 Conn=wye Model=8 zipv=(0.5,0,0.5,1,0,0,0) kv=13.8000 pf=0.92 kW=4.5911 Daily=MT-Tipo3
New Load.MT_16088-11315773_34 Bus1=16088-11315773.1.2.3 Phases=3 Conn=wye Model=8 zipv=(0.5,0,0.5,1,0,0,0) kv=13.8000 pf=0.92 kW=7.6936 Daily=MT-Tipo2
New Load.MT_16087-10864732_35 Bus1=16087-10864732.1.2.3 Phases=3 Conn=wye Model=8 zipv=(0.5,0,0.5,1,0,0,0) kv=13.8000 pf=0.92 kW=5.4973 Daily=MT-Tipo1
New Load.MT_16087-10864906_36 Bus1=16087-10864906.1.2.3 Phases=3 Conn=wye Model=8 zipv=(0.5,0,0.5,1,0,0,0) kv=13.8000 pf=0.92 kW=5.1781 Daily=MT-Tipo1
New Load.MT_16085-10863381_37 Bus1=16085-10863381.1.2.3 Phases=3 Conn=wye Model=8 zipv=(0.5,0,0.5,1,0,0,0) kv=13.8000 pf=0.92 kW=1.7833 Daily=MT-Tipo7
New Load.MT_25448-7498831_38 Bus1=25448-7498831.1.2.3 Phases=3 Conn=wye Model=8 zipv=(0.5,0,0.5,1,0,0,0) kv=13.8000 pf=0.92 kW=9.9759 Daily=MT-Tipo8
New Load.MT_25448-12354232_40 Bus1=25448-12354232.1.2.3 Phases=3 Conn=wye Model=8 zipv=(0.5,0,0.5,1,0,0,0) kv=13.8000 pf=0.92 kW=1.2557 Daily=MT-Tipo8
New Load.MT_16087-10864637_41 Bus1=16087-10864637.1.2.3 Phases=3 Conn=wye Model=8 zipv=(0.5,0,0.5,1,0,0,0) kv=13.8000 pf=0.92 kW=0.3471 Daily=MT-Tipo1
New Load.MT_25448-12851026_76 Bus1=25448-12851026.1.2.3 Phases=3 Conn=wye Model=8 zipv=(0.5,0,0.5,1,0,0,0) kv=13.8000 pf=0.92 kW=44.9149 Daily=MT-Tipo1
New Load.MT_16087-10864337_77 Bus1=16087-10864337.1.2.3 Phases=3 Conn=wye Model=8 zipv=(0.5,0,0.5,1,0,0,0) kv=13.8000 pf=0.92 kW=6.5085 Daily=MT-Tipo1
New Load.MT_16085-12415487_78 Bus1=16085-12415487.1.2.3 Phases=3 Conn=wye Model=8 zipv=(0.5,0,0.5,1,0,0,0) kv=13.8000 pf=0.92 kW=6.9680 Daily=MT-Tipo1
New Load.MT_16085-12821634_79 Bus1=16085-12821634.1.2.3 Phases=3 Conn=wye Model=8 zipv=(0.5,0,0.5,1,0,0,0) kv=13.8000 pf=0.92 kW=3.5545 Daily=MT-Tipo1
New Load.MT_16085-12423517_80 Bus1=16085-12423517.1.2.3 Phases=3 Conn=wye Model=8 zipv=(0.5,0,0.5,1,0,0,0) kv=13.8000 pf=0.92 kW=2.8647 Daily=MT-Tipo1
New Load.MT_16087-12500079_81 Bus1=16087-12500079.1.2.3 Phases=3 Conn=wye Model=8 zipv=(0.5,0,0.5,1,0,0,0) kv=13.8000 pf=0.92 kW=0.8698 Daily=MT-Tipo3
New Load.MT_16088-10866565_82 Bus1=16088-10866565.1.2.3 Phases=3 Conn=wye Model=8 zipv=(0.5,0,0.5,1,0,0,0) kv=13.8000 pf=0.92 kW=9.7251 Daily=MT-Tipo1
New Load.MT_16088-10867068_83 Bus1=16088-10867068.1.2.3 Phases=3 Conn=wye Model=8 zipv=(0.5,0,0.5,1,0,0,0) kv=13.8000 pf=0.92 kW=8.6116 Daily=MT-Tipo1
New Load.MT_16088-12366738_84 Bus1=16088-12366738.1.2.3 Phases=3 Conn=wye Model=8 zipv=(0.5,0,0.5,1,0,0,0) kv=13.8000 pf=0.92 kW=6.9375 Daily=MT-Tipo3
New Load.MT_16087-10864726_85 Bus1=16087-10864726.1.2.3 Phases=3 Conn=wye Model=8 zipv=(0.5,0,0.5,1,0,0,0) kv=13.8000 pf=0.92 kW=7.8061 Daily=MT-Tipo4
New Load.MT_16085-10863041_86 Bus1=16085-10863041.1.2.3 Phases=3 Conn=wye Model=8 zipv=(0.5,0,0.5,1,0,0,0) kv=13.8000 pf=0.92 kW=4.8180 Daily=MT-Tipo1
New Load.MT_16085-12437872_87 Bus1=16085-12437872.1.2.3 Phases=3 Conn=wye Model=8 zipv=(0.5,0,0.5,1,0,0,0) kv=13.8000 pf=0.92 kW=28.5390 Daily=MT-Tipo3
New Load.MT_16085-10863484_88 Bus1=16085-10863484.1.2.3 Phases=3 Conn=wye Model=8 zipv=(0.5,0,0.5,1,0,0,0) kv=13.8000 pf=0.92 kW=1.3233 Daily=MT-Tipo1
New Load.MT_16085-10863047_89 Bus1=16085-10863047.1.2.3 Phases=3 Conn=wye Model=8 zipv=(0.5,0,0.5,1,0,0,0) kv=13.8000 pf=0.92 kW=11.4836 Daily=MT-Tipo1
New Load.MT_16087-12624128_90 Bus1=16087-12624128.1.2.3 Phases=3 Conn=wye Model=8 zipv=(0.5,0,0.5,1,0,0,0) kv=13.8000 pf=0.92 kW=3.3296 Daily=MT-Tipo2
New Load.MT_16088-12531718_91 Bus1=16088-12531718.1.2.3 Phases=3 Conn=wye Model=8 zipv=(0.5,0,0.5,1,0,0,0) kv=13.8000 pf=0.92 kW=12.0172 Daily=MT-Tipo2
New Load.MT_16088-10868026_92 Bus1=16088-10868026.1.2.3 Phases=3 Conn=wye Model=8 zipv=(0.5,0,0.5,1,0,0,0) kv=13.8000 pf=0.92 kW=3.3880 Daily=MT-Tipo1
New Load.MT_16087-10864905_93 Bus1=16087-10864905.1.2.3 Phases=3 Conn=wye Model=8 zipv=(0.5,0,0.5,1,0,0,0) kv=13.8000 pf=0.92 kW=0.9784 Daily=MT-Tipo9
New Load.MT_16088-12525822_94 Bus1=16088-12525822.1.2.3 Phases=3 Conn=wye Model=8 zipv=(0.5,0,0.5,1,0,0,0) kv=13.8000 pf=0.92 kW=0.0690 Daily=MT-Tipo3
New Load.MT_16087-10864813_95 Bus1=16087-10864813.1.2.3 Phases=3 Conn=wye Model=8 zipv=(0.5,0,0.5,1,0,0,0) kv=13.8000 pf=0.92 kW=0.0280 Daily=MT-Tipo9
New Load.MT_16085-10862810_96 Bus1=16085-10862810.1.2.3 Phases=3 Conn=wye Model=8 zipv=(0.5,0,0.5,1,0,0,0) kv=13.8000 pf=0.92 kW=2.5034 Daily=MT-Tipo2
New Load.MT_16088-12402864_97 Bus1=16088-12402864.1.2.3 Phases=3 Conn=wye Model=8 zipv=(0.5,0,0.5,1,0,0,0) kv=13.8000 pf=0.92 kW=5.4406 Daily=MT-Tipo1
New Load.MT_16088-12481909_98 Bus1=16088-12481909.1.2.3 Phases=3 Conn=wye Model=8 zipv=(0.5,0,0.5,1,0,0,0) kv=13.8000 pf=0.92 kW=26.2442 Daily=MT-Tipo8
New Load.MT_16087-10864807_99 Bus1=16087-10864807.1.2.3 Phases=3 Conn=wye Model=8 zipv=(0.5,0,0.5,1,0,0,0) kv=13.8000 pf=0.92 kW=0.7182 Daily=MT-Tipo1
New Load.MT_16088-10865798_100 Bus1=16088-10865798.1.2.3 Phases=3 Conn=wye Model=8 zipv=(0.5,0,0.5,1,0,0,0) kv=13.8000 pf=0.92 kW=19.6730 Daily=MT-Tipo2
